48
Energy = -1152.484607320
C    -1.4677174    2.3118606    2.8911465 
C    -2.0721663    1.8299749    1.7103167 
C    -1.2996664    1.4917578    0.6121497 
C     0.1159219    1.6160163    0.6245486 
C     0.7075992    2.2044115    1.7906014 
C    -0.0999437    2.5066811    2.9181982 
C    -0.9605659   -1.2879373   -0.5197816 
C     0.9605659    1.2879373   -0.5197816 
C     0.5335704    0.4989094   -1.6663216 
C    -0.5335704   -0.4989094   -1.6663216 
C     1.2053271    0.7319613   -2.9072006 
C     2.4644668    1.4057531   -2.9231337 
C     3.0210115    1.8647610   -1.7609686 
C     2.2681430    1.8518991   -0.5470506 
C     2.8257483    2.4438156    0.6336424 
C     2.0949309    2.5583250    1.7806714 
H     2.5361409    2.9888492    2.6855047 
H     3.8595744    2.8023580    0.5930471 
H    -2.0809645    2.5605572    3.7631620 
H     0.3819792    2.9301243    3.8058191 
H     2.9859093    1.5182027   -3.8791530 
H     4.0175054    2.3179669   -1.7567874 
C    -2.0949309   -2.5583250    1.7806714 
C    -2.8257483   -2.4438156    0.6336424 
C    -2.2681430   -1.8518991   -0.5470506 
H    -2.5361409   -2.9888492    2.6855047 
H    -3.8595744   -2.8023580    0.5930471 
C    -3.0210115   -1.8647610   -1.7609686 
C    -2.4644668   -1.4057531   -2.9231337 
C    -1.2053271   -0.7319613   -2.9072006 
H    -4.0175054   -2.3179669   -1.7567874 
H    -2.9859093   -1.5182027   -3.8791530 
C     0.6109055    0.3071566   -4.1348001 
C    -0.1159219   -1.6160163    0.6245486 
C    -0.7075992   -2.2044115    1.7906014 
H    -3.1607779    1.7299623    1.6544302 
H    -1.8002964    1.1560873   -0.2947506 
C     0.0999437   -2.5066811    2.9181982 
C     1.2996664   -1.4917578    0.6121497 
C     2.0721663   -1.8299749    1.7103167 
C     1.4677174   -2.3118606    2.8911465 
H    -0.3819792   -2.9301243    3.8058191 
H     1.8002964   -1.1560873   -0.2947506 
H     3.1607779   -1.7299623    1.6544302 
H     2.0809645   -2.5605572    3.7631620 
C    -0.6109055   -0.3071566   -4.1348001 
H     1.1245912    0.5389760   -5.0733098 
H    -1.1245912   -0.5389760   -5.0733098 
