48
Energy =
C             7.51947          -3.58661           2.13827
C             6.20401          -3.84591           1.72473
C             5.33816          -2.80926           1.46188
C             5.73658          -1.46034           1.58583
C             7.03359          -1.21039           2.11703
C             7.91494          -2.28775           2.34869
C             4.38519          -2.14366          -1.28034
C             4.86969          -0.33359           1.28034
C             3.68945          -0.40726           0.46701
C             3.39957          -1.49025          -0.46701
C             2.72046           0.61435           0.54497
C             3.03306           1.79914           1.26028
C             4.26729           1.97509           1.81092
C             5.21330           0.92333           1.83329
C             6.50191           1.12683           2.41244
C             7.40417           0.11833           2.48325
H             8.39712           0.29039           2.88151
H             6.75123           2.11815           2.77246
H             8.20395          -4.40496           2.32322
H             8.90863          -2.07172           2.72376
H             2.28776           2.57230           1.36356
H             4.51634           2.91021           2.29852
C             6.35502          -3.80124          -2.48325
C             5.06961          -4.22417          -2.41244
C             4.05496          -3.40416          -1.83329
H             7.12925          -4.44632          -2.88151
H             4.79038          -5.20748          -2.77246
C             2.71004          -3.84270          -1.81092
C             1.72874          -3.07373          -1.26028
C             2.04980          -1.89120          -0.54497
H             2.45865          -4.77720          -2.29852
H             0.69687          -3.37119          -1.36356
C             1.36578           0.36027           0.06685
C             5.69903          -1.60062          -1.58583
C             6.69775          -2.46507          -2.11703
H             5.86226          -4.86740           1.61503
H             4.32675          -3.04059           1.16859
C             7.99945          -1.97205          -2.34869
C             6.02773          -0.23305          -1.46188
C             7.29567           0.23246          -1.72473
C             8.30570          -0.64931          -2.13827
H             8.75235          -2.65559          -2.72376
H             5.26713           0.47260          -1.16859
H             7.50989           1.28808          -1.61503
H             9.30746          -0.28231          -2.32322
C             1.00318          -0.99437          -0.06685
H             0.54188           1.18374          -0.04262
H            -0.12191          -1.29615           0.04262
